REMARK VINA RESULT:      -7.0      0.000      0.000
REMARK  13 active torsions:
REMARK  status: ('A' for Active; 'I' for Inactive)
REMARK    1  A    between atoms: O_1  and  C9_18 
REMARK    2  A    between atoms: O1_2  and  C18_27 
REMARK    3  A    between atoms: O1_2  and  C26_35 
REMARK    4  A    between atoms: O2_3  and  C19_28 
REMARK    5  A    between atoms: O4_5  and  C27_36 
REMARK    6  A    between atoms: O5_6  and  C29_38 
REMARK    7  A    between atoms: O6_7  and  C31_40 
REMARK    8  A    between atoms: O7_8  and  C33_42 
REMARK    9  A    between atoms: C7_16  and  C18_27 
REMARK   10  A    between atoms: C18_27  and  C23_32 
REMARK   11  A    between atoms: C23_32  and  C25_34 
REMARK   12  A    between atoms: C25_34  and  C28_37 
REMARK   13  A    between atoms: C30_39  and  C33_42 
REMARK viewdock state: V
HETATM    1  C   UNK     0       0.237   1.277   0.775  0.00  0.00    -0.032 C 
HETATM    2  C1  UNK     0       0.966   1.019  -0.629  0.00  0.00    -0.030 C 
HETATM    3  C2  UNK     0       0.530   0.024   1.705  0.00  0.00     0.005 C 
HETATM    4  C3  UNK     0       0.134   0.156   3.241  0.00  0.00    -0.035 C 
HETATM    5  C4  UNK     0       0.420  -0.294  -1.255  0.00  0.00     0.030 C 
HETATM    6  C5  UNK     0       0.724   1.505   3.786  0.00  0.00     0.004 C 
HETATM    7  C6  UNK     0       0.779   2.553   1.469  0.00  0.00     0.011 C 
HETATM    8  C7  UNK     0       0.964  -0.292  -2.695  0.00  0.00     0.027 C 
HETATM    9  C8  UNK     0       0.086  -1.302   1.030  0.00  0.00     0.038 C 
HETATM   10  C9  UNK     0       0.700  -1.507  -0.369  0.00  0.00     0.123 C 
HETATM   11  C10 UNK     0       0.656   1.996  -1.787  0.00  0.00     0.011 C 
HETATM   12  C11 UNK     0       0.318   2.717   2.922  0.00  0.00     0.007 C 
HETATM   13  C12 UNK     0       0.563   1.741   5.344  0.00  0.00    -0.017 C 
HETATM   14  C13 UNK     0       0.979   1.208  -3.073  0.00  0.00     0.009 C 
HETATM   15  C14 UNK     0       0.802  -1.029   4.025  0.00  0.00     0.012 C 
HETATM   16  C15 UNK     0      -1.288   1.493   0.558  0.00  0.00     0.016 C 
HETATM   17  C16 UNK     0       2.524   0.998  -0.486  0.00  0.00     0.016 C 
HETATM   18  C17 UNK     0      -1.394   0.047   3.451  0.00  0.00     0.016 C 
HETATM   19  C19 UNK     0       0.712   0.404   6.142  0.00  0.00     0.126 C 
HETATM   20  C20 UNK     0       1.472  -0.654   5.351  0.00  0.00     0.033 C 
HETATM   21  C21 UNK     0       1.730   2.664   5.801  0.00  0.00     0.018 C 
HETATM   22  C22 UNK     0      -0.740   2.480   5.718  0.00  0.00     0.018 C 
HETATM   23  C18 UNK     0       0.138  -1.109  -3.681  0.00  0.00     0.065 C 
HETATM   24  C24 UNK     0       0.509  -0.717  -5.116  0.00  0.00     0.046 C 
HETATM   25  O1  UNK     0       0.485  -2.484  -3.500  0.00  0.00    -0.348 OA
HETATM   26  C26 UNK     0       1.257  -2.970  -4.598  0.00  0.00     0.292 C 
HETATM   27  O3  UNK     0       0.615  -4.103  -5.174  0.00  0.00    -0.348 OA
HETATM   28  C30 UNK     0       1.326  -4.625  -6.298  0.00  0.00     0.179 C 
HETATM   29  C31 UNK     0       2.702  -5.130  -5.856  0.00  0.00     0.180 C 
HETATM   30  C29 UNK     0       3.485  -4.022  -5.151  0.00  0.00     0.183 C 
HETATM   31  C27 UNK     0       2.640  -3.349  -4.067  0.00  0.00     0.204 C 
HETATM   32  C33 UNK     0       0.482  -5.744  -6.900  0.00  0.00     0.198 C 
HETATM   33  O7  UNK     0       0.787  -6.950  -6.224  0.00  0.00    -0.398 OA
HETATM   34  H   UNK     0       1.503  -6.753  -5.595  0.00  0.00     0.209 HD
HETATM   35  O6  UNK     0       3.433  -5.569  -6.997  0.00  0.00    -0.390 OA
HETATM   36  H   UNK     0       4.313  -5.858  -6.697  0.00  0.00     0.210 HD
HETATM   37  O5  UNK     0       4.642  -4.609  -4.554  0.00  0.00    -0.390 OA
HETATM   38  H   UNK     0       5.202  -4.966  -5.265  0.00  0.00     0.210 HD
HETATM   39  O4  UNK     0       3.294  -2.160  -3.628  0.00  0.00    -0.388 OA
HETATM   40  H   UNK     0       2.893  -1.405  -4.090  0.00  0.00     0.210 HD
HETATM   41  C23 UNK     0      -1.382  -0.934  -3.469  0.00  0.00     0.042 C 
HETATM   42  C25 UNK     0      -2.182  -0.726  -4.763  0.00  0.00     0.030 C 
HETATM   43  C28 UNK     0      -3.180   0.388  -4.607  0.00  0.00    -0.025 C 
HETATM   44  C32 UNK     0      -3.014   1.688  -4.919  0.00  0.00    -0.091 C 
HETATM   45  C34 UNK     0      -1.706   2.178  -5.480  0.00  0.00     0.042 C 
HETATM   46  C35 UNK     0      -4.054   2.757  -4.738  0.00  0.00     0.042 C 
HETATM   47  O   UNK     0       0.142  -2.686  -0.940  0.00  0.00    -0.395 OA
HETATM   48  H   UNK     0      -0.604  -2.416  -1.503  0.00  0.00     0.210 HD
HETATM   49  O2  UNK     0      -0.536  -0.162   6.534  0.00  0.00    -0.395 OA
HETATM   50  H   UNK     0      -1.222   0.189   5.939  0.00  0.00     0.210 HD
ENDMDL
REMARK VINA RESULT:      -6.9      2.176      3.348
REMARK  13 active torsions:
REMARK  status: ('A' for Active; 'I' for Inactive)
REMARK    1  A    between atoms: O_1  and  C9_18 
REMARK    2  A    between atoms: O1_2  and  C18_27 
REMARK    3  A    between atoms: O1_2  and  C26_35 
REMARK    4  A    between atoms: O2_3  and  C19_28 
REMARK    5  A    between atoms: O4_5  and  C27_36 
REMARK    6  A    between atoms: O5_6  and  C29_38 
REMARK    7  A    between atoms: O6_7  and  C31_40 
REMARK    8  A    between atoms: O7_8  and  C33_42 
REMARK    9  A    between atoms: C7_16  and  C18_27 
REMARK   10  A    between atoms: C18_27  and  C23_32 
REMARK   11  A    between atoms: C23_32  and  C25_34 
REMARK   12  A    between atoms: C25_34  and  C28_37 
REMARK   13  A    between atoms: C30_39  and  C33_42 
REMARK viewdock state: V
HETATM    1  C   UNK     0      -0.502   0.556  -0.448  0.00  0.00    -0.032 C 
HETATM    2  C1  UNK     0       0.423   0.858  -1.722  0.00  0.00    -0.030 C 
HETATM    3  C2  UNK     0       0.161  -0.644   0.353  0.00  0.00     0.005 C 
HETATM    4  C3  UNK     0      -0.427  -0.959   1.799  0.00  0.00    -0.035 C 
HETATM    5  C4  UNK     0       0.525  -0.423  -2.595  0.00  0.00     0.030 C 
HETATM    6  C5  UNK     0      -0.493   0.386   2.606  0.00  0.00     0.004 C 
HETATM    7  C6  UNK     0      -0.600   1.789   0.487  0.00  0.00     0.011 C 
HETATM    8  C7  UNK     0       1.182   0.051  -3.904  0.00  0.00     0.027 C 
HETATM    9  C8  UNK     0       0.366  -1.888  -0.552  0.00  0.00     0.038 C 
HETATM   10  C9  UNK     0       1.165  -1.583  -1.834  0.00  0.00     0.123 C 
HETATM   11  C10 UNK     0      -0.118   1.842  -2.783  0.00  0.00     0.011 C 
HETATM   12  C11 UNK     0      -1.250   1.494   1.843  0.00  0.00     0.007 C 
HETATM   13  C12 UNK     0      -0.912   0.250   4.127  0.00  0.00    -0.017 C 
HETATM   14  C13 UNK     0       0.637   1.489  -4.081  0.00  0.00     0.009 C 
HETATM   15  C14 UNK     0       0.567  -1.928   2.533  0.00  0.00     0.012 C 
HETATM   16  C15 UNK     0      -1.951   0.217  -0.903  0.00  0.00     0.016 C 
HETATM   17  C16 UNK     0       1.832   1.400  -1.308  0.00  0.00     0.016 C 
HETATM   18  C17 UNK     0      -1.796  -1.672   1.719  0.00  0.00     0.016 C 
HETATM   19  C19 UNK     0      -0.331  -1.056   4.764  0.00  0.00     0.126 C 
HETATM   20  C20 UNK     0       0.874  -1.581   3.993  0.00  0.00     0.033 C 
HETATM   21  C21 UNK     0      -0.272   1.443   4.897  0.00  0.00     0.018 C 
HETATM   22  C22 UNK     0      -2.434   0.360   4.355  0.00  0.00     0.018 C 
HETATM   23  C18 UNK     0       0.870  -0.818  -5.116  0.00  0.00     0.065 C 
HETATM   24  C24 UNK     0       0.699   0.067  -6.357  0.00  0.00     0.046 C 
HETATM   25  O1  UNK     0       1.997  -1.668  -5.339  0.00  0.00    -0.348 OA
HETATM   26  C26 UNK     0       3.172  -1.143  -4.721  0.00  0.00     0.292 C 
HETATM   27  O3  UNK     0       3.701  -0.085  -5.515  0.00  0.00    -0.348 OA
HETATM   28  C30 UNK     0       4.867   0.505  -4.937  0.00  0.00     0.179 C 
HETATM   29  C31 UNK     0       5.991  -0.533  -4.856  0.00  0.00     0.180 C 
HETATM   30  C29 UNK     0       5.533  -1.768  -4.081  0.00  0.00     0.183 C 
HETATM   31  C27 UNK     0       4.186  -2.280  -4.597  0.00  0.00     0.204 C 
HETATM   32  C33 UNK     0       5.261   1.696  -5.805  0.00  0.00     0.198 C 
HETATM   33  O7  UNK     0       5.948   2.633  -4.997  0.00  0.00    -0.398 OA
HETATM   34  H   UNK     0       5.845   2.346  -4.073  0.00  0.00     0.209 HD
HETATM   35  O6  UNK     0       7.118   0.042  -4.203  0.00  0.00    -0.390 OA
HETATM   36  H   UNK     0       7.750  -0.673  -4.009  0.00  0.00     0.210 HD
HETATM   37  O5  UNK     0       6.521  -2.785  -4.246  0.00  0.00    -0.390 OA
HETATM   38  H   UNK     0       7.028  -2.853  -3.418  0.00  0.00     0.210 HD
HETATM   39  O4  UNK     0       3.667  -3.247  -3.686  0.00  0.00    -0.388 OA
HETATM   40  H   UNK     0       2.978  -3.756  -4.144  0.00  0.00     0.210 HD
HETATM   41  C23 UNK     0      -0.393  -1.684  -4.915  0.00  0.00     0.042 C 
HETATM   42  C25 UNK     0      -1.642  -1.158  -5.634  0.00  0.00     0.030 C 
HETATM   43  C28 UNK     0      -2.564  -0.462  -4.673  0.00  0.00    -0.025 C 
HETATM   44  C32 UNK     0      -3.033   0.800  -4.751  0.00  0.00    -0.091 C 
HETATM   45  C34 UNK     0      -2.628   1.695  -5.893  0.00  0.00     0.042 C 
HETATM   46  C35 UNK     0      -3.955   1.441  -3.754  0.00  0.00     0.042 C 
HETATM   47  O   UNK     0       1.196  -2.757  -2.639  0.00  0.00    -0.395 OA
HETATM   48  H   UNK     0       0.290  -3.111  -2.678  0.00  0.00     0.210 HD
HETATM   49  O2  UNK     0      -1.283  -2.112   4.853  0.00  0.00    -0.395 OA
HETATM   50  H   UNK     0      -2.116  -1.795   4.464  0.00  0.00     0.210 HD
ENDMDL
REMARK VINA RESULT:      -6.8      3.280      6.091
REMARK  13 active torsions:
REMARK  status: ('A' for Active; 'I' for Inactive)
REMARK    1  A    between atoms: O_1  and  C9_18 
REMARK    2  A    between atoms: O1_2  and  C18_27 
REMARK    3  A    between atoms: O1_2  and  C26_35 
REMARK    4  A    between atoms: O2_3  and  C19_28 
REMARK    5  A    between atoms: O4_5  and  C27_36 
REMARK    6  A    between atoms: O5_6  and  C29_38 
REMARK    7  A    between atoms: O6_7  and  C31_40 
REMARK    8  A    between atoms: O7_8  and  C33_42 
REMARK    9  A    between atoms: C7_16  and  C18_27 
REMARK   10  A    between atoms: C18_27  and  C23_32 
REMARK   11  A    between atoms: C23_32  and  C25_34 
REMARK   12  A    between atoms: C25_34  and  C28_37 
REMARK   13  A    between atoms: C30_39  and  C33_42 
REMARK viewdock state: V
HETATM    1  C   UNK     0       0.781  -0.076   0.839  0.00  0.00    -0.032 C 
HETATM    2  C1  UNK     0       1.479  -0.390  -0.570  0.00  0.00    -0.030 C 
HETATM    3  C2  UNK     0      -0.496  -1.011   0.961  0.00  0.00     0.005 C 
HETATM    4  C3  UNK     0      -1.211  -1.075   2.382  0.00  0.00    -0.035 C 
HETATM    5  C4  UNK     0       0.464  -0.121  -1.715  0.00  0.00     0.030 C 
HETATM    6  C5  UNK     0      -0.115  -1.349   3.472  0.00  0.00     0.004 C 
HETATM    7  C6  UNK     0       1.735  -0.374   2.024  0.00  0.00     0.011 C 
HETATM    8  C7  UNK     0       1.307  -0.177  -3.001  0.00  0.00     0.027 C 
HETATM    9  C8  UNK     0      -1.457  -0.822  -0.244  0.00  0.00     0.038 C 
HETATM   10  C9  UNK     0      -0.768  -1.019  -1.608  0.00  0.00     0.123 C 
HETATM   11  C10 UNK     0       2.624   0.542  -1.026  0.00  0.00     0.011 C 
HETATM   12  C11 UNK     0       1.054  -0.344   3.396  0.00  0.00     0.007 C 
HETATM   13  C12 UNK     0      -0.657  -1.598   4.939  0.00  0.00    -0.017 C 
HETATM   14  C13 UNK     0       2.677   0.392  -2.560  0.00  0.00     0.009 C 
HETATM   15  C14 UNK     0      -2.214  -2.283   2.374  0.00  0.00     0.012 C 
HETATM   16  C15 UNK     0       0.406   1.431   0.929  0.00  0.00     0.016 C 
HETATM   17  C16 UNK     0       2.056  -1.844  -0.626  0.00  0.00     0.016 C 
HETATM   18  C17 UNK     0      -2.029   0.205   2.671  0.00  0.00     0.016 C 
HETATM   19  C19 UNK     0      -2.006  -2.390   4.922  0.00  0.00     0.126 C 
HETATM   20  C20 UNK     0      -2.197  -3.168   3.625  0.00  0.00     0.033 C 
HETATM   21  C21 UNK     0       0.378  -2.499   5.673  0.00  0.00     0.018 C 
HETATM   22  C22 UNK     0      -0.771  -0.306   5.776  0.00  0.00     0.018 C 
HETATM   23  C18 UNK     0       0.726   0.609  -4.170  0.00  0.00     0.065 C 
HETATM   24  C24 UNK     0      -0.032  -0.341  -5.106  0.00  0.00     0.046 C 
HETATM   25  O1  UNK     0      -0.218   1.541  -3.637  0.00  0.00    -0.348 OA
HETATM   26  C26 UNK     0      -0.936   2.203  -4.679  0.00  0.00     0.292 C 
HETATM   27  O3  UNK     0      -0.280   3.422  -5.014  0.00  0.00    -0.348 OA
HETATM   28  C30 UNK     0      -0.935   4.124  -6.073  0.00  0.00     0.179 C 
HETATM   29  C31 UNK     0      -2.343   4.536  -5.633  0.00  0.00     0.180 C 
HETATM   30  C29 UNK     0      -3.146   3.319  -5.174  0.00  0.00     0.183 C 
HETATM   31  C27 UNK     0      -2.352   2.476  -4.173  0.00  0.00     0.204 C 
HETATM   32  C33 UNK     0      -0.077   5.335  -6.424  0.00  0.00     0.198 C 
HETATM   33  O7  UNK     0      -0.728   6.499  -5.947  0.00  0.00    -0.398 OA
HETATM   34  H   UNK     0      -1.442   6.706  -6.575  0.00  0.00     0.209 HD
HETATM   35  O6  UNK     0      -3.015   5.159  -6.723  0.00  0.00    -0.390 OA
HETATM   36  H   UNK     0      -2.626   4.820  -7.549  0.00  0.00     0.210 HD
HETATM   37  O5  UNK     0      -4.344   3.786  -4.555  0.00  0.00    -0.390 OA
HETATM   38  H   UNK     0      -4.377   4.754  -4.651  0.00  0.00     0.210 HD
HETATM   39  O4  UNK     0      -3.010   1.224  -3.983  0.00  0.00    -0.388 OA
HETATM   40  H   UNK     0      -2.347   0.518  -4.064  0.00  0.00     0.210 HD
HETATM   41  C23 UNK     0       1.806   1.374  -4.966  0.00  0.00     0.042 C 
HETATM   42  C25 UNK     0       2.256   0.674  -6.255  0.00  0.00     0.030 C 
HETATM   43  C28 UNK     0       3.696   0.249  -6.163  0.00  0.00    -0.025 C 
HETATM   44  C32 UNK     0       4.173  -0.971  -5.847  0.00  0.00    -0.091 C 
HETATM   45  C34 UNK     0       3.231  -2.098  -5.518  0.00  0.00     0.042 C 
HETATM   46  C35 UNK     0       5.629  -1.333  -5.771  0.00  0.00     0.042 C 
HETATM   47  O   UNK     0      -1.704  -0.713  -2.637  0.00  0.00    -0.395 OA
HETATM   48  H   UNK     0      -1.345   0.033  -3.149  0.00  0.00     0.210 HD
HETATM   49  O2  UNK     0      -3.150  -1.560   5.102  0.00  0.00    -0.395 OA
HETATM   50  H   UNK     0      -3.639  -1.891   5.875  0.00  0.00     0.210 HD
ENDMDL
REMARK VINA RESULT:      -6.8      3.532      5.877
REMARK  13 active torsions:
REMARK  status: ('A' for Active; 'I' for Inactive)
REMARK    1  A    between atoms: O_1  and  C9_18 
REMARK    2  A    between atoms: O1_2  and  C18_27 
REMARK    3  A    between atoms: O1_2  and  C26_35 
REMARK    4  A    between atoms: O2_3  and  C19_28 
REMARK    5  A    between atoms: O4_5  and  C27_36 
REMARK    6  A    between atoms: O5_6  and  C29_38 
REMARK    7  A    between atoms: O6_7  and  C31_40 
REMARK    8  A    between atoms: O7_8  and  C33_42 
REMARK    9  A    between atoms: C7_16  and  C18_27 
REMARK   10  A    between atoms: C18_27  and  C23_32 
REMARK   11  A    between atoms: C23_32  and  C25_34 
REMARK   12  A    between atoms: C25_34  and  C28_37 
REMARK   13  A    between atoms: C30_39  and  C33_42 
REMARK viewdock state: V
HETATM    1  C   UNK     0       0.552  -0.480   1.584  0.00  0.00    -0.032 C 
HETATM    2  C1  UNK     0      -0.210  -0.979   0.264  0.00  0.00    -0.030 C 
HETATM    3  C2  UNK     0      -0.449   0.450   2.392  0.00  0.00     0.005 C 
HETATM    4  C3  UNK     0      -0.021   0.859   3.870  0.00  0.00    -0.035 C 
HETATM    5  C4  UNK     0      -0.642   0.255  -0.574  0.00  0.00     0.030 C 
HETATM    6  C5  UNK     0       0.398  -0.444   4.638  0.00  0.00     0.004 C 
HETATM    7  C6  UNK     0       0.965  -1.672   2.484  0.00  0.00     0.011 C 
HETATM    8  C7  UNK     0      -1.096  -0.331  -1.923  0.00  0.00     0.027 C 
HETATM    9  C8  UNK     0      -0.970   1.622   1.517  0.00  0.00     0.038 C 
HETATM   10  C9  UNK     0      -1.609   1.156   0.194  0.00  0.00     0.123 C 
HETATM   11  C10 UNK     0       0.622  -1.727  -0.803  0.00  0.00     0.011 C 
HETATM   12  C11 UNK     0       1.462  -1.261   3.875  0.00  0.00     0.007 C 
HETATM   13  C12 UNK     0       0.713  -0.257   6.179  0.00  0.00    -0.017 C 
HETATM   14  C13 UNK     0      -0.162  -1.549  -2.120  0.00  0.00     0.009 C 
HETATM   15  C14 UNK     0      -1.271   1.479   4.590  0.00  0.00     0.012 C 
HETATM   16  C15 UNK     0       1.858   0.271   1.199  0.00  0.00     0.016 C 
HETATM   17  C16 UNK     0      -1.419  -1.912   0.602  0.00  0.00     0.016 C 
HETATM   18  C17 UNK     0       1.092   1.932   3.868  0.00  0.00     0.016 C 
HETATM   19  C19 UNK     0      -0.234   0.805   6.830  0.00  0.00     0.126 C 
HETATM   20  C20 UNK     0      -1.513   1.000   6.026  0.00  0.00     0.033 C 
HETATM   21  C21 UNK     0       0.414  -1.612   6.885  0.00  0.00     0.018 C 
HETATM   22  C22 UNK     0       2.197   0.058   6.466  0.00  0.00     0.018 C 
HETATM   23  C18 UNK     0      -1.006   0.639  -3.094  0.00  0.00     0.065 C 
HETATM   24  C24 UNK     0      -0.933  -0.145  -4.410  0.00  0.00     0.046 C 
HETATM   25  O1  UNK     0      -2.210   1.409  -3.111  0.00  0.00    -0.348 OA
HETATM   26  C26 UNK     0      -3.144   0.888  -4.058  0.00  0.00     0.292 C 
HETATM   27  O3  UNK     0      -3.174   1.722  -5.212  0.00  0.00    -0.348 OA
HETATM   28  C30 UNK     0      -4.073   1.239  -6.213  0.00  0.00     0.179 C 
HETATM   29  C31 UNK     0      -5.507   1.250  -5.676  0.00  0.00     0.180 C 
HETATM   30  C29 UNK     0      -5.607   0.441  -4.383  0.00  0.00     0.183 C 
HETATM   31  C27 UNK     0      -4.517   0.846  -3.388  0.00  0.00     0.204 C 
HETATM   32  C33 UNK     0      -3.924   2.136  -7.438  0.00  0.00     0.198 C 
HETATM   33  O7  UNK     0      -4.905   3.155  -7.371  0.00  0.00    -0.398 OA
HETATM   34  H   UNK     0      -4.570   3.836  -6.762  0.00  0.00     0.209 HD
HETATM   35  O6  UNK     0      -6.380   0.690  -6.651  0.00  0.00    -0.390 OA
HETATM   36  H   UNK     0      -7.292   0.773  -6.320  0.00  0.00     0.210 HD
HETATM   37  O5  UNK     0      -6.890   0.686  -3.806  0.00  0.00    -0.390 OA
HETATM   38  H   UNK     0      -7.096  -0.049  -3.202  0.00  0.00     0.210 HD
HETATM   39  O4  UNK     0      -4.470  -0.103  -2.325  0.00  0.00    -0.388 OA
HETATM   40  H   UNK     0      -5.286  -0.017  -1.804  0.00  0.00     0.210 HD
HETATM   41  C23 UNK     0       0.207   1.589  -2.985  0.00  0.00     0.042 C 
HETATM   42  C25 UNK     0       1.333   1.295  -3.986  0.00  0.00     0.030 C 
HETATM   43  C28 UNK     0       2.535   0.719  -3.291  0.00  0.00    -0.025 C 
HETATM   44  C32 UNK     0       3.152  -0.451  -3.550  0.00  0.00    -0.091 C 
HETATM   45  C34 UNK     0       2.638  -1.360  -4.635  0.00  0.00     0.042 C 
HETATM   46  C35 UNK     0       4.354  -0.973  -2.816  0.00  0.00     0.042 C 
HETATM   47  O   UNK     0      -1.945   2.305  -0.576  0.00  0.00    -0.395 OA
HETATM   48  H   UNK     0      -2.642   2.046  -1.203  0.00  0.00     0.210 HD
HETATM   49  O2  UNK     0       0.377   2.082   6.990  0.00  0.00    -0.395 OA
HETATM   50  H   UNK     0       0.238   2.584   6.169  0.00  0.00     0.210 HD
ENDMDL
REMARK VINA RESULT:      -6.6      1.707      2.773
REMARK  13 active torsions:
REMARK  status: ('A' for Active; 'I' for Inactive)
REMARK    1  A    between atoms: O_1  and  C9_18 
REMARK    2  A    between atoms: O1_2  and  C18_27 
REMARK    3  A    between atoms: O1_2  and  C26_35 
REMARK    4  A    between atoms: O2_3  and  C19_28 
REMARK    5  A    between atoms: O4_5  and  C27_36 
REMARK    6  A    between atoms: O5_6  and  C29_38 
REMARK    7  A    between atoms: O6_7  and  C31_40 
REMARK    8  A    between atoms: O7_8  and  C33_42 
REMARK    9  A    between atoms: C7_16  and  C18_27 
REMARK   10  A    between atoms: C18_27  and  C23_32 
REMARK   11  A    between atoms: C23_32  and  C25_34 
REMARK   12  A    between atoms: C25_34  and  C28_37 
REMARK   13  A    between atoms: C30_39  and  C33_42 
REMARK viewdock state: V
HETATM    1  C   UNK     0      -0.693  -0.319   0.382  0.00  0.00    -0.032 C 
HETATM    2  C1  UNK     0      -0.790   0.385  -1.055  0.00  0.00    -0.030 C 
HETATM    3  C2  UNK     0       0.388   0.474   1.232  0.00  0.00     0.005 C 
HETATM    4  C3  UNK     0       0.478   0.132   2.785  0.00  0.00    -0.035 C 
HETATM    5  C4  UNK     0       0.606   0.352  -1.736  0.00  0.00     0.030 C 
HETATM    6  C5  UNK     0      -0.971   0.189   3.386  0.00  0.00     0.004 C 
HETATM    7  C6  UNK     0      -2.051  -0.271   1.129  0.00  0.00     0.011 C 
HETATM    8  C7  UNK     0       0.339   0.784  -3.189  0.00  0.00     0.027 C 
HETATM    9  C8  UNK     0       1.754   0.538   0.499  0.00  0.00     0.038 C 
HETATM   10  C9  UNK     0       1.653   1.116  -0.927  0.00  0.00     0.123 C 
HETATM   11  C10 UNK     0      -1.618  -0.329  -2.148  0.00  0.00     0.011 C 
HETATM   12  C11 UNK     0      -1.969  -0.690   2.601  0.00  0.00     0.007 C 
HETATM   13  C12 UNK     0      -1.066   0.025   4.958  0.00  0.00    -0.017 C 
HETATM   14  C13 UNK     0      -1.066   0.208  -3.485  0.00  0.00     0.009 C 
HETATM   15  C14 UNK     0       1.347   1.239   3.482  0.00  0.00     0.012 C 
HETATM   16  C15 UNK     0      -0.317  -1.819   0.222  0.00  0.00     0.016 C 
HETATM   17  C16 UNK     0      -1.363   1.839  -0.959  0.00  0.00     0.016 C 
HETATM   18  C17 UNK     0       1.172  -1.226   3.033  0.00  0.00     0.016 C 
HETATM   19  C19 UNK     0       0.143   0.711   5.677  0.00  0.00     0.126 C 
HETATM   20  C20 UNK     0       0.796   1.777   4.807  0.00  0.00     0.033 C 
HETATM   21  C21 UNK     0      -2.347   0.773   5.430  0.00  0.00     0.018 C 
HETATM   22  C22 UNK     0      -1.234  -1.442   5.410  0.00  0.00     0.018 C 
HETATM   23  C18 UNK     0       1.370   0.285  -4.193  0.00  0.00     0.065 C 
HETATM   24  C24 UNK     0       2.285   1.442  -4.614  0.00  0.00     0.046 C 
HETATM   25  O1  UNK     0       2.179  -0.692  -3.534  0.00  0.00    -0.348 OA
HETATM   26  C26 UNK     0       3.026  -1.372  -4.460  0.00  0.00     0.292 C 
HETATM   27  O3  UNK     0       2.517  -2.680  -4.707  0.00  0.00    -0.348 OA
HETATM   28  C30 UNK     0       3.307  -3.407  -5.649  0.00  0.00     0.179 C 
HETATM   29  C31 UNK     0       4.715  -3.627  -5.089  0.00  0.00     0.180 C 
HETATM   30  C29 UNK     0       5.363  -2.295  -4.710  0.00  0.00     0.183 C 
HETATM   31  C27 UNK     0       4.425  -1.448  -3.848  0.00  0.00     0.204 C 
HETATM   32  C33 UNK     0       2.597  -4.729  -5.924  0.00  0.00     0.198 C 
HETATM   33  O7  UNK     0       3.173  -5.728  -5.102  0.00  0.00    -0.398 OA
HETATM   34  H   UNK     0       2.477  -6.382  -4.915  0.00  0.00     0.209 HD
HETATM   35  O6  UNK     0       5.516  -4.279  -6.070  0.00  0.00    -0.390 OA
HETATM   36  H   UNK     0       5.382  -3.822  -6.919  0.00  0.00     0.210 HD
HETATM   37  O5  UNK     0       6.556  -2.576  -3.979  0.00  0.00    -0.390 OA
HETATM   38  H   UNK     0       7.239  -1.940  -4.257  0.00  0.00     0.210 HD
HETATM   39  O4  UNK     0       4.943  -0.122  -3.748  0.00  0.00    -0.388 OA
HETATM   40  H   UNK     0       5.900  -0.157  -3.913  0.00  0.00     0.210 HD
HETATM   41  C23 UNK     0       0.722  -0.348  -5.444  0.00  0.00     0.042 C 
HETATM   42  C25 UNK     0       0.704   0.564  -6.678  0.00  0.00     0.030 C 
HETATM   43  C28 UNK     0      -0.704   0.924  -7.062  0.00  0.00    -0.025 C 
HETATM   44  C32 UNK     0      -1.374   2.054  -6.761  0.00  0.00    -0.091 C 
HETATM   45  C34 UNK     0      -0.721   3.132  -5.935  0.00  0.00     0.042 C 
HETATM   46  C35 UNK     0      -2.786   2.356  -7.175  0.00  0.00     0.042 C 
HETATM   47  O   UNK     0       2.933   1.023  -1.545  0.00  0.00    -0.395 OA
HETATM   48  H   UNK     0       2.891   0.306  -2.202  0.00  0.00     0.210 HD
HETATM   49  O2  UNK     0       1.158  -0.207   6.073  0.00  0.00    -0.395 OA
HETATM   50  H   UNK     0       1.613  -0.513   5.270  0.00  0.00     0.210 HD
ENDMDL
REMARK VINA RESULT:      -6.6      2.151      3.009
REMARK  13 active torsions:
REMARK  status: ('A' for Active; 'I' for Inactive)
REMARK    1  A    between atoms: O_1  and  C9_18 
REMARK    2  A    between atoms: O1_2  and  C18_27 
REMARK    3  A    between atoms: O1_2  and  C26_35 
REMARK    4  A    between atoms: O2_3  and  C19_28 
REMARK    5  A    between atoms: O4_5  and  C27_36 
REMARK    6  A    between atoms: O5_6  and  C29_38 
REMARK    7  A    between atoms: O6_7  and  C31_40 
REMARK    8  A    between atoms: O7_8  and  C33_42 
REMARK    9  A    between atoms: C7_16  and  C18_27 
REMARK   10  A    between atoms: C18_27  and  C23_32 
REMARK   11  A    between atoms: C23_32  and  C25_34 
REMARK   12  A    between atoms: C25_34  and  C28_37 
REMARK   13  A    between atoms: C30_39  and  C33_42 
REMARK viewdock state: V
HETATM    1  C   UNK     0      -0.691   0.245   1.741  0.00  0.00    -0.032 C 
HETATM    2  C1  UNK     0       0.280   1.021   0.728  0.00  0.00    -0.030 C 
HETATM    3  C2  UNK     0       0.205  -0.747   2.598  0.00  0.00     0.005 C 
HETATM    4  C3  UNK     0      -0.485  -1.441   3.854  0.00  0.00    -0.035 C 
HETATM    5  C4  UNK     0       1.007  -0.013  -0.175  0.00  0.00     0.030 C 
HETATM    6  C5  UNK     0      -1.192  -0.326   4.704  0.00  0.00     0.004 C 
HETATM    7  C6  UNK     0      -1.409   1.228   2.702  0.00  0.00     0.011 C 
HETATM    8  C7  UNK     0       1.676   0.834  -1.273  0.00  0.00     0.027 C 
HETATM    9  C8  UNK     0       1.019  -1.707   1.690  0.00  0.00     0.038 C 
HETATM   10  C9  UNK     0       1.875  -0.971   0.640  0.00  0.00     0.123 C 
HETATM   11  C10 UNK     0      -0.377   1.891  -0.368  0.00  0.00     0.011 C 
HETATM   12  C11 UNK     0      -2.146   0.543   3.858  0.00  0.00     0.007 C 
HETATM   13  C12 UNK     0      -1.808  -0.805   6.082  0.00  0.00    -0.017 C 
HETATM   14  C13 UNK     0       0.684   2.003  -1.482  0.00  0.00     0.009 C 
HETATM   15  C14 UNK     0       0.639  -2.096   4.733  0.00  0.00     0.012 C 
HETATM   16  C15 UNK     0      -1.800  -0.509   0.954  0.00  0.00     0.016 C 
HETATM   17  C16 UNK     0       1.285   1.956   1.478  0.00  0.00     0.016 C 
HETATM   18  C17 UNK     0      -1.454  -2.567   3.427  0.00  0.00     0.016 C 
HETATM   19  C19 UNK     0      -0.918  -1.902   6.754  0.00  0.00     0.126 C 
HETATM   20  C20 UNK     0       0.517  -1.866   6.244  0.00  0.00     0.033 C 
HETATM   21  C21 UNK     0      -1.809   0.418   7.045  0.00  0.00     0.018 C 
HETATM   22  C22 UNK     0      -3.278  -1.263   5.968  0.00  0.00     0.018 C 
HETATM   23  C18 UNK     0       1.940   0.085  -2.573  0.00  0.00     0.065 C 
HETATM   24  C24 UNK     0       1.865   1.059  -3.755  0.00  0.00     0.046 C 
HETATM   25  O1  UNK     0       3.273  -0.428  -2.514  0.00  0.00    -0.348 OA
HETATM   26  C26 UNK     0       3.765  -0.741  -3.817  0.00  0.00     0.292 C 
HETATM   27  O3  UNK     0       3.672  -2.145  -4.041  0.00  0.00    -0.348 OA
HETATM   28  C30 UNK     0       4.125  -2.524  -5.342  0.00  0.00     0.179 C 
HETATM   29  C31 UNK     0       5.613  -2.193  -5.493  0.00  0.00     0.180 C 
HETATM   30  C29 UNK     0       5.872  -0.714  -5.208  0.00  0.00     0.183 C 
HETATM   31  C27 UNK     0       5.220  -0.280  -3.893  0.00  0.00     0.204 C 
HETATM   32  C33 UNK     0       3.860  -4.017  -5.507  0.00  0.00     0.198 C 
HETATM   33  O7  UNK     0       4.639  -4.719  -4.556  0.00  0.00    -0.398 OA
HETATM   34  H   UNK     0       4.644  -5.655  -4.822  0.00  0.00     0.209 HD
HETATM   35  O6  UNK     0       6.032  -2.498  -6.819  0.00  0.00    -0.390 OA
HETATM   36  H   UNK     0       5.274  -2.885  -7.292  0.00  0.00     0.210 HD
HETATM   37  O5  UNK     0       7.283  -0.520  -5.124  0.00  0.00    -0.390 OA
HETATM   38  H   UNK     0       7.720  -1.354  -5.370  0.00  0.00     0.210 HD
HETATM   39  O4  UNK     0       5.245   1.143  -3.800  0.00  0.00    -0.388 OA
HETATM   40  H   UNK     0       4.769   1.403  -2.993  0.00  0.00     0.210 HD
HETATM   41  C23 UNK     0       0.953  -1.082  -2.796  0.00  0.00     0.042 C 
HETATM   42  C25 UNK     0      -0.202  -0.760  -3.754  0.00  0.00     0.030 C 
HETATM   43  C28 UNK     0      -1.490  -0.575  -3.003  0.00  0.00    -0.025 C 
HETATM   44  C32 UNK     0      -2.339   0.470  -3.073  0.00  0.00    -0.091 C 
HETATM   45  C34 UNK     0      -2.036   1.640  -3.970  0.00  0.00     0.042 C 
HETATM   46  C35 UNK     0      -3.616   0.597  -2.292  0.00  0.00     0.042 C 
HETATM   47  O   UNK     0       2.486  -1.940  -0.206  0.00  0.00    -0.395 OA
HETATM   48  H   UNK     0       2.377  -2.809   0.216  0.00  0.00     0.210 HD
HETATM   49  O2  UNK     0      -1.413  -3.225   6.565  0.00  0.00    -0.395 OA
HETATM   50  H   UNK     0      -2.382  -3.195   6.644  0.00  0.00     0.210 HD
ENDMDL
REMARK VINA RESULT:      -6.5      2.884      5.098
REMARK  13 active torsions:
REMARK  status: ('A' for Active; 'I' for Inactive)
REMARK    1  A    between atoms: O_1  and  C9_18 
REMARK    2  A    between atoms: O1_2  and  C18_27 
REMARK    3  A    between atoms: O1_2  and  C26_35 
REMARK    4  A    between atoms: O2_3  and  C19_28 
REMARK    5  A    between atoms: O4_5  and  C27_36 
REMARK    6  A    between atoms: O5_6  and  C29_38 
REMARK    7  A    between atoms: O6_7  and  C31_40 
REMARK    8  A    between atoms: O7_8  and  C33_42 
REMARK    9  A    between atoms: C7_16  and  C18_27 
REMARK   10  A    between atoms: C18_27  and  C23_32 
REMARK   11  A    between atoms: C23_32  and  C25_34 
REMARK   12  A    between atoms: C25_34  and  C28_37 
REMARK   13  A    between atoms: C30_39  and  C33_42 
REMARK viewdock state: V
HETATM    1  C   UNK     0      -0.575  -0.408   0.601  0.00  0.00    -0.032 C 
HETATM    2  C1  UNK     0      -0.609   0.146  -0.903  0.00  0.00    -0.030 C 
HETATM    3  C2  UNK     0       0.341   0.571   1.452  0.00  0.00     0.005 C 
HETATM    4  C3  UNK     0       0.323   0.385   3.033  0.00  0.00    -0.035 C 
HETATM    5  C4  UNK     0       0.839   0.200  -1.461  0.00  0.00     0.030 C 
HETATM    6  C5  UNK     0      -1.173   0.342   3.506  0.00  0.00     0.004 C 
HETATM    7  C6  UNK     0      -1.993  -0.437   1.227  0.00  0.00     0.011 C 
HETATM    8  C7  UNK     0       0.664   0.465  -2.967  0.00  0.00     0.027 C 
HETATM    9  C8  UNK     0       1.756   0.712   0.829  0.00  0.00     0.038 C 
HETATM   10  C9  UNK     0       1.728   1.142  -0.652  0.00  0.00     0.123 C 
HETATM   11  C10 UNK     0      -1.261  -0.750  -1.981  0.00  0.00     0.011 C 
HETATM   12  C11 UNK     0      -2.004  -0.707   2.736  0.00  0.00     0.007 C 
HETATM   13  C12 UNK     0      -1.394   0.314   5.074  0.00  0.00    -0.017 C 
HETATM   14  C13 UNK     0      -0.645  -0.283  -3.316  0.00  0.00     0.009 C 
HETATM   15  C14 UNK     0       1.012   1.638   3.683  0.00  0.00     0.012 C 
HETATM   16  C15 UNK     0      -0.039  -1.868   0.625  0.00  0.00     0.016 C 
HETATM   17  C16 UNK     0      -1.328   1.533  -1.001  0.00  0.00     0.016 C 
HETATM   18  C17 UNK     0       1.122  -0.863   3.473  0.00  0.00     0.016 C 
HETATM   19  C19 UNK     0      -0.329   1.189   5.815  0.00  0.00     0.126 C 
HETATM   20  C20 UNK     0       0.292   2.234   4.897  0.00  0.00     0.033 C 
HETATM   21  C21 UNK     0      -2.780   0.961   5.363  0.00  0.00     0.018 C 
HETATM   22  C22 UNK     0      -1.457  -1.114   5.657  0.00  0.00     0.018 C 
HETATM   23  C18 UNK     0       1.827  -0.011  -3.830  0.00  0.00     0.065 C 
HETATM   24  C24 UNK     0       1.318  -0.372  -5.231  0.00  0.00     0.046 C 
HETATM   25  O1  UNK     0       2.740   1.080  -3.965  0.00  0.00    -0.348 OA
HETATM   26  C26 UNK     0       3.631   0.876  -5.061  0.00  0.00     0.292 C 
HETATM   27  O3  UNK     0       4.841   0.287  -4.595  0.00  0.00    -0.348 OA
HETATM   28  C30 UNK     0       5.769   0.031  -5.652  0.00  0.00     0.179 C 
HETATM   29  C31 UNK     0       6.194   1.350  -6.303  0.00  0.00     0.180 C 
HETATM   30  C29 UNK     0       4.974   2.130  -6.793  0.00  0.00     0.183 C 
HETATM   31  C27 UNK     0       3.908   2.237  -5.700  0.00  0.00     0.204 C 
HETATM   32  C33 UNK     0       6.959  -0.710  -5.051  0.00  0.00     0.198 C 
HETATM   33  O7  UNK     0       6.672  -0.997  -3.694  0.00  0.00    -0.398 OA
HETATM   34  H   UNK     0       5.855  -0.519  -3.467  0.00  0.00     0.209 HD
HETATM   35  O6  UNK     0       7.052   1.077  -7.406  0.00  0.00    -0.390 OA
HETATM   36  H   UNK     0       7.332   1.928  -7.787  0.00  0.00     0.210 HD
HETATM   37  O5  UNK     0       5.406   3.440  -7.164  0.00  0.00    -0.390 OA
HETATM   38  H   UNK     0       5.029   4.074  -6.529  0.00  0.00     0.210 HD
HETATM   39  O4  UNK     0       2.693   2.721  -6.270  0.00  0.00    -0.388 OA
HETATM   40  H   UNK     0       2.152   1.955  -6.526  0.00  0.00     0.210 HD
HETATM   41  C23 UNK     0       2.564  -1.222  -3.216  0.00  0.00     0.042 C 
HETATM   42  C25 UNK     0       2.337  -2.545  -3.959  0.00  0.00     0.030 C 
HETATM   43  C28 UNK     0       3.634  -3.275  -4.169  0.00  0.00    -0.025 C 
HETATM   44  C32 UNK     0       4.290  -3.467  -5.331  0.00  0.00    -0.091 C 
HETATM   45  C34 UNK     0       3.726  -2.935  -6.622  0.00  0.00     0.042 C 
HETATM   46  C35 UNK     0       5.588  -4.209  -5.476  0.00  0.00     0.042 C 
HETATM   47  O   UNK     0       3.061   1.130  -1.152  0.00  0.00    -0.395 OA
HETATM   48  H   UNK     0       3.235   2.001  -1.548  0.00  0.00     0.210 HD
HETATM   49  O2  UNK     0       0.731   0.425   6.383  0.00  0.00    -0.395 OA
HETATM   50  H   UNK     0       1.180   0.982   7.042  0.00  0.00     0.210 HD
ENDMDL
REMARK VINA RESULT:      -6.4      3.146      5.362
REMARK  13 active torsions:
REMARK  status: ('A' for Active; 'I' for Inactive)
REMARK    1  A    between atoms: O_1  and  C9_18 
REMARK    2  A    between atoms: O1_2  and  C18_27 
REMARK    3  A    between atoms: O1_2  and  C26_35 
REMARK    4  A    between atoms: O2_3  and  C19_28 
REMARK    5  A    between atoms: O4_5  and  C27_36 
REMARK    6  A    between atoms: O5_6  and  C29_38 
REMARK    7  A    between atoms: O6_7  and  C31_40 
REMARK    8  A    between atoms: O7_8  and  C33_42 
REMARK    9  A    between atoms: C7_16  and  C18_27 
REMARK   10  A    between atoms: C18_27  and  C23_32 
REMARK   11  A    between atoms: C23_32  and  C25_34 
REMARK   12  A    between atoms: C25_34  and  C28_37 
REMARK   13  A    between atoms: C30_39  and  C33_42 
REMARK viewdock state: V
HETATM    1  C   UNK     0       0.543  -0.488   1.313  0.00  0.00    -0.032 C 
HETATM    2  C1  UNK     0      -0.101  -1.022  -0.055  0.00  0.00    -0.030 C 
HETATM    3  C2  UNK     0      -0.565   0.363   2.066  0.00  0.00     0.005 C 
HETATM    4  C3  UNK     0      -0.256   0.783   3.570  0.00  0.00    -0.035 C 
HETATM    5  C4  UNK     0      -0.566   0.190  -0.908  0.00  0.00     0.030 C 
HETATM    6  C5  UNK     0       0.205  -0.498   4.353  0.00  0.00     0.004 C 
HETATM    7  C6  UNK     0       0.983  -1.660   2.228  0.00  0.00     0.011 C 
HETATM    8  C7  UNK     0      -0.897  -0.410  -2.286  0.00  0.00     0.027 C 
HETATM    9  C8  UNK     0      -1.112   1.507   1.170  0.00  0.00     0.038 C 
HETATM   10  C9  UNK     0      -1.637   1.014  -0.193  0.00  0.00     0.123 C 
HETATM   11  C10 UNK     0       0.842  -1.699  -1.075  0.00  0.00     0.011 C 
HETATM   12  C11 UNK     0       1.366  -1.233   3.649  0.00  0.00     0.007 C 
HETATM   13  C12 UNK     0       0.413  -0.309   5.911  0.00  0.00    -0.017 C 
HETATM   14  C13 UNK     0       0.129  -1.559  -2.435  0.00  0.00     0.009 C 
HETATM   15  C14 UNK     0      -1.586   1.307   4.218  0.00  0.00     0.012 C 
HETATM   16  C15 UNK     0       1.816   0.355   1.014  0.00  0.00     0.016 C 
HETATM   17  C16 UNK     0      -1.262  -2.039   0.203  0.00  0.00     0.016 C 
HETATM   18  C17 UNK     0       0.779   1.929   3.644  0.00  0.00     0.016 C 
HETATM   19  C19 UNK     0      -0.642   0.679   6.511  0.00  0.00     0.126 C 
HETATM   20  C20 UNK     0      -1.881   0.796   5.632  0.00  0.00     0.033 C 
HETATM   21  C21 UNK     0       0.165  -1.689   6.587  0.00  0.00     0.018 C 
HETATM   22  C22 UNK     0       1.851   0.103   6.290  0.00  0.00     0.018 C 
HETATM   23  C18 UNK     0      -0.803   0.578  -3.442  0.00  0.00     0.065 C 
HETATM   24  C24 UNK     0      -0.456  -0.171  -4.735  0.00  0.00     0.046 C 
HETATM   25  O1  UNK     0      -2.094   1.167  -3.613  0.00  0.00    -0.348 OA
HETATM   26  C26 UNK     0      -3.067   0.187  -3.972  0.00  0.00     0.292 C 
HETATM   27  O3  UNK     0      -3.010  -0.058  -5.373  0.00  0.00    -0.348 OA
HETATM   28  C30 UNK     0      -3.944  -1.054  -5.795  0.00  0.00     0.179 C 
HETATM   29  C31 UNK     0      -5.374  -0.571  -5.534  0.00  0.00     0.180 C 
HETATM   30  C29 UNK     0      -5.560  -0.201  -4.063  0.00  0.00     0.183 C 
HETATM   31  C27 UNK     0      -4.443   0.724  -3.577  0.00  0.00     0.204 C 
HETATM   32  C33 UNK     0      -3.700  -1.317  -7.278  0.00  0.00     0.198 C 
HETATM   33  O7  UNK     0      -2.365  -1.759  -7.442  0.00  0.00    -0.398 OA
HETATM   34  H   UNK     0      -1.888  -1.059  -7.921  0.00  0.00     0.209 HD
HETATM   35  O6  UNK     0      -6.291  -1.603  -5.881  0.00  0.00    -0.390 OA
HETATM   36  H   UNK     0      -5.960  -2.041  -6.685  0.00  0.00     0.210 HD
HETATM   37  O5  UNK     0      -6.817   0.463  -3.930  0.00  0.00    -0.390 OA
HETATM   38  H   UNK     0      -6.723   1.158  -3.256  0.00  0.00     0.210 HD
HETATM   39  O4  UNK     0      -4.495   0.822  -2.154  0.00  0.00    -0.388 OA
HETATM   40  H   UNK     0      -4.111   0.011  -1.780  0.00  0.00     0.210 HD
HETATM   41  C23 UNK     0       0.238   1.690  -3.189  0.00  0.00     0.042 C 
HETATM   42  C25 UNK     0       1.517   1.563  -4.026  0.00  0.00     0.030 C 
HETATM   43  C28 UNK     0       2.578   0.805  -3.277  0.00  0.00    -0.025 C 
HETATM   44  C32 UNK     0       3.367  -0.183  -3.745  0.00  0.00    -0.091 C 
HETATM   45  C34 UNK     0       3.230  -0.660  -5.167  0.00  0.00     0.042 C 
HETATM   46  C35 UNK     0       4.412  -0.904  -2.943  0.00  0.00     0.042 C 
HETATM   47  O   UNK     0      -2.004   2.147  -0.974  0.00  0.00    -0.395 OA
HETATM   48  H   UNK     0      -2.605   2.692  -0.437  0.00  0.00     0.210 HD
HETATM   49  O2  UNK     0      -0.131   1.993   6.718  0.00  0.00    -0.395 OA
HETATM   50  H   UNK     0       0.016   2.108   7.673  0.00  0.00     0.210 HD
ENDMDL
REMARK VINA RESULT:      -6.3      3.282     10.252
REMARK  13 active torsions:
REMARK  status: ('A' for Active; 'I' for Inactive)
REMARK    1  A    between atoms: O_1  and  C9_18 
REMARK    2  A    between atoms: O1_2  and  C18_27 
REMARK    3  A    between atoms: O1_2  and  C26_35 
REMARK    4  A    between atoms: O2_3  and  C19_28 
REMARK    5  A    between atoms: O4_5  and  C27_36 
REMARK    6  A    between atoms: O5_6  and  C29_38 
REMARK    7  A    between atoms: O6_7  and  C31_40 
REMARK    8  A    between atoms: O7_8  and  C33_42 
REMARK    9  A    between atoms: C7_16  and  C18_27 
REMARK   10  A    between atoms: C18_27  and  C23_32 
REMARK   11  A    between atoms: C23_32  and  C25_34 
REMARK   12  A    between atoms: C25_34  and  C28_37 
REMARK   13  A    between atoms: C30_39  and  C33_42 
REMARK viewdock state: V
HETATM    1  C   UNK     0       0.334  -0.872  -1.430  0.00  0.00    -0.032 C 
HETATM    2  C1  UNK     0       1.059  -0.865  -0.000  0.00  0.00    -0.030 C 
HETATM    3  C2  UNK     0       0.777   0.445  -2.199  0.00  0.00     0.005 C 
HETATM    4  C3  UNK     0       0.398   0.542  -3.742  0.00  0.00    -0.035 C 
HETATM    5  C4  UNK     0       0.645   0.415   0.777  0.00  0.00     0.030 C 
HETATM    6  C5  UNK     0       0.851  -0.788  -4.444  0.00  0.00     0.004 C 
HETATM    7  C6  UNK     0       0.750  -2.106  -2.271  0.00  0.00     0.011 C 
HETATM    8  C7  UNK     0       1.157   0.181   2.209  0.00  0.00     0.027 C 
HETATM    9  C8  UNK     0       0.465   1.720  -1.370  0.00  0.00     0.038 C 
HETATM   10  C9  UNK     0       1.070   1.688   0.047  0.00  0.00     0.123 C 
HETATM   11  C10 UNK     0       0.625  -1.934   1.028  0.00  0.00     0.011 C 
HETATM   12  C11 UNK     0       0.301  -2.044  -3.735  0.00  0.00     0.007 C 
HETATM   13  C12 UNK     0       0.695  -0.817  -6.019  0.00  0.00    -0.017 C 
HETATM   14  C13 UNK     0       1.005  -1.347   2.403  0.00  0.00     0.009 C 
HETATM   15  C14 UNK     0       1.204   1.733  -4.372  0.00  0.00     0.012 C 
HETATM   16  C15 UNK     0      -1.210  -0.946  -1.250  0.00  0.00     0.016 C 
HETATM   17  C16 UNK     0       2.613  -0.996  -0.131  0.00  0.00     0.016 C 
HETATM   18  C17 UNK     0      -1.105   0.840  -3.946  0.00  0.00     0.016 C 
HETATM   19  C19 UNK     0       1.002   0.583  -6.648  0.00  0.00     0.126 C 
HETATM   20  C20 UNK     0       1.855   1.449  -5.730  0.00  0.00     0.033 C 
HETATM   21  C21 UNK     0       1.766  -1.799  -6.578  0.00  0.00     0.018 C 
HETATM   22  C22 UNK     0      -0.672  -1.359  -6.488  0.00  0.00     0.018 C 
HETATM   23  C18 UNK     0       0.405   0.958   3.282  0.00  0.00     0.065 C 
HETATM   24  C24 UNK     0       0.929   0.566   4.669  0.00  0.00     0.046 C 
HETATM   25  O1  UNK     0       0.685   2.346   3.087  0.00  0.00    -0.348 OA
HETATM   26  C26 UNK     0       0.934   3.004   4.329  0.00  0.00     0.292 C 
HETATM   27  O3  UNK     0      -0.260   3.627   4.791  0.00  0.00    -0.348 OA
HETATM   28  C30 UNK     0      -0.086   4.283   6.049  0.00  0.00     0.179 C 
HETATM   29  C31 UNK     0       0.929   5.421   5.907  0.00  0.00     0.180 C 
HETATM   30  C29 UNK     0       2.252   4.901   5.347  0.00  0.00     0.183 C 
HETATM   31  C27 UNK     0       2.029   4.045   4.099  0.00  0.00     0.204 C 
HETATM   32  C33 UNK     0      -1.451   4.798   6.495  0.00  0.00     0.198 C 
HETATM   33  O7  UNK     0      -2.246   5.018   5.344  0.00  0.00    -0.398 OA
HETATM   34  H   UNK     0      -2.766   4.209   5.195  0.00  0.00     0.209 HD
HETATM   35  O6  UNK     0       1.157   6.012   7.182  0.00  0.00    -0.390 OA
HETATM   36  H   UNK     0       0.297   6.098   7.631  0.00  0.00     0.210 HD
HETATM   37  O5  UNK     0       3.064   6.026   5.011  0.00  0.00    -0.390 OA
HETATM   38  H   UNK     0       2.624   6.828   5.345  0.00  0.00     0.210 HD
HETATM   39  O4  UNK     0       3.237   3.360   3.771  0.00  0.00    -0.388 OA
HETATM   40  H   UNK     0       3.155   3.016   2.866  0.00  0.00     0.210 HD
HETATM   41  C23 UNK     0      -1.122   0.731   3.218  0.00  0.00     0.042 C 
HETATM   42  C25 UNK     0      -1.722   0.106   4.485  0.00  0.00     0.030 C 
HETATM   43  C28 UNK     0      -2.199  -1.295   4.221  0.00  0.00    -0.025 C 
HETATM   44  C32 UNK     0      -1.964  -2.396   4.962  0.00  0.00    -0.091 C 
HETATM   45  C34 UNK     0      -1.122  -2.312   6.208  0.00  0.00     0.042 C 
HETATM   46  C35 UNK     0      -2.470  -3.774   4.643  0.00  0.00     0.042 C 
HETATM   47  O   UNK     0       0.631   2.843   0.754  0.00  0.00    -0.395 OA
HETATM   48  H   UNK     0       0.369   2.561   1.647  0.00  0.00     0.210 HD
HETATM   49  O2  UNK     0      -0.171   1.323  -6.976  0.00  0.00    -0.395 OA
HETATM   50  H   UNK     0      -0.587   0.898  -7.745  0.00  0.00     0.210 HD
ENDMDL
