REMARK  13 active torsions:
REMARK  status: ('A' for Active; 'I' for Inactive)
REMARK    1  A    between atoms: O_1  and  C9_18 
REMARK    2  A    between atoms: O1_2  and  C18_27 
REMARK    3  A    between atoms: O1_2  and  C26_35 
REMARK    4  A    between atoms: O2_3  and  C19_28 
REMARK    5  A    between atoms: O4_5  and  C27_36 
REMARK    6  A    between atoms: O5_6  and  C29_38 
REMARK    7  A    between atoms: O6_7  and  C31_40 
REMARK    8  A    between atoms: O7_8  and  C33_42 
REMARK    9  A    between atoms: C7_16  and  C18_27 
REMARK   10  A    between atoms: C18_27  and  C23_32 
REMARK   11  A    between atoms: C23_32  and  C25_34 
REMARK   12  A    between atoms: C25_34  and  C28_37 
REMARK   13  A    between atoms: C30_39  and  C33_42 
ROOT
HETATM    1  C   UNK     0      -2.519  -0.700   0.829  0.00  0.00    -0.032 C 
HETATM    2  C1  UNK     0      -1.260  -1.590   0.387  0.00  0.00    -0.030 C 
HETATM    3  C2  UNK     0      -3.273  -0.247  -0.492  0.00  0.00     0.005 C 
HETATM    4  C3  UNK     0      -4.704   0.428  -0.311  0.00  0.00    -0.035 C 
HETATM    5  C4  UNK     0      -0.337  -0.747  -0.536  0.00  0.00     0.030 C 
HETATM    6  C5  UNK     0      -5.564  -0.488   0.631  0.00  0.00     0.004 C 
HETATM    7  C6  UNK     0      -3.501  -1.509   1.714  0.00  0.00     0.011 C 
HETATM    8  C7  UNK     0       0.950  -1.582  -0.663  0.00  0.00     0.027 C 
HETATM    9  C8  UNK     0      -2.320   0.498  -1.465  0.00  0.00     0.038 C 
HETATM   10  C9  UNK     0      -1.053  -0.309  -1.812  0.00  0.00     0.123 C 
HETATM   11  C10 UNK     0      -0.237  -1.976   1.479  0.00  0.00     0.011 C 
HETATM   12  C11 UNK     0      -4.843  -0.809   1.957  0.00  0.00     0.007 C 
HETATM   13  C12 UNK     0      -7.077  -0.057   0.808  0.00  0.00    -0.017 C 
HETATM   14  C13 UNK     0       1.071  -2.271   0.717  0.00  0.00     0.009 C 
HETATM   15  C14 UNK     0      -5.402   0.486  -1.717  0.00  0.00     0.012 C 
HETATM   16  C15 UNK     0      -2.046   0.518   1.673  0.00  0.00     0.016 C 
HETATM   17  C16 UNK     0      -1.699  -2.932  -0.289  0.00  0.00     0.016 C 
HETATM   18  C17 UNK     0      -4.592   1.879   0.211  0.00  0.00     0.016 C 
HETATM   19  C19 UNK     0      -7.663   0.525  -0.521  0.00  0.00     0.126 C 
HETATM   20  C20 UNK     0      -6.876   0.068  -1.743  0.00  0.00     0.033 C 
HETATM   21  C21 UNK     0      -7.895  -1.342   1.129  0.00  0.00     0.018 C 
HETATM   22  C22 UNK     0      -7.304   0.904   1.994  0.00  0.00     0.018 C 
ENDROOT
BRANCH   8  23
HETATM   23  C18 UNK     0       2.196  -0.770  -0.995  0.00  0.00     0.065 C 
HETATM   24  C24 UNK     0       2.403  -0.737  -2.514  0.00  0.00     0.046 C 
BRANCH  23  25
HETATM   25  O1  UNK     0       1.968   0.571  -0.556  0.00  0.00    -0.348 OA
BRANCH  25  26
HETATM   26  C26 UNK     0       3.197   1.280  -0.398  0.00  0.00     0.292 C 
HETATM   27  O3  UNK     0       3.687   1.103   0.928  0.00  0.00    -0.348 OA
HETATM   28  C30 UNK     0       4.933   1.768   1.145  0.00  0.00     0.179 C 
HETATM   29  C31 UNK     0       4.752   3.280   0.985  0.00  0.00     0.180 C 
HETATM   30  C29 UNK     0       4.160   3.613  -0.384  0.00  0.00     0.183 C 
HETATM   31  C27 UNK     0       2.927   2.758  -0.678  0.00  0.00     0.204 C 
BRANCH  28  32
HETATM   32  C33 UNK     0       5.412   1.403   2.547  0.00  0.00     0.198 C 
BRANCH  32  33
HETATM   33  O7  UNK     0       5.546  -0.005   2.624  0.00  0.00    -0.398 OA
HETATM   34  H   UNK     0       5.847  -0.216   3.524  0.00  0.00     0.209 HD
ENDBRANCH  32  33
ENDBRANCH  28  32
BRANCH  29  35
HETATM   35  O6  UNK     0       6.016   3.923   1.121  0.00  0.00    -0.390 OA
HETATM   36  H   UNK     0       6.608   3.571   0.434  0.00  0.00     0.210 HD
ENDBRANCH  29  35
BRANCH  30  37
HETATM   37  O5  UNK     0       3.792   4.993  -0.383  0.00  0.00    -0.390 OA
HETATM   38  H   UNK     0       3.109   5.124   0.298  0.00  0.00     0.210 HD
ENDBRANCH  30  37
BRANCH  31  39
HETATM   39  O4  UNK     0       2.571   2.896  -2.053  0.00  0.00    -0.388 OA
HETATM   40  H   UNK     0       3.324   2.600  -2.592  0.00  0.00     0.210 HD
ENDBRANCH  31  39
ENDBRANCH  25  26
ENDBRANCH  23  25
BRANCH  23  41
HETATM   41  C23 UNK     0       3.464  -1.324  -0.308  0.00  0.00     0.042 C 
BRANCH  41  42
HETATM   42  C25 UNK     0       3.770  -2.792  -0.632  0.00  0.00     0.030 C 
BRANCH  42  43
HETATM   43  C28 UNK     0       4.972  -3.274   0.132  0.00  0.00    -0.025 C 
HETATM   44  C32 UNK     0       6.254  -3.293  -0.281  0.00  0.00    -0.091 C 
HETATM   45  C34 UNK     0       6.620  -2.807  -1.658  0.00  0.00     0.042 C 
HETATM   46  C35 UNK     0       7.415  -3.790   0.533  0.00  0.00     0.042 C 
ENDBRANCH  42  43
ENDBRANCH  41  42
ENDBRANCH  23  41
ENDBRANCH   8  23
BRANCH  10  47
HETATM   47  O   UNK     0      -0.203   0.507  -2.612  0.00  0.00    -0.395 OA
HETATM   48  H   UNK     0      -0.698   0.752  -3.412  0.00  0.00     0.210 HD
ENDBRANCH  10  47
BRANCH  19  49
HETATM   49  O2  UNK     0      -7.708   1.949  -0.542  0.00  0.00    -0.395 OA
HETATM   50  H   UNK     0      -8.122   2.222  -1.379  0.00  0.00     0.210 HD
ENDBRANCH  19  49
TORSDOF 13
