@<TRIPOS>MOLECULE
UNL
  217   224     1     0     0
SMALL
bcc


@<TRIPOS>ATOM
      1 C           -6.1700     0.6090    -1.0630 c3         2 UNL       0.323614
      2 C2          -6.5310    -0.2390     0.1880 c3         2 UNL       0.126100
      3 C3          -5.4750    -1.3460     0.4150 c3         2 UNL       0.119671
      4 C4          -5.3020    -2.1680    -0.8970 c3         2 UNL       0.092243
      5 C5          -5.0670    -1.2710    -2.1390 c3         2 UNL       0.095814
      6 C6          -5.3390    -2.0460    -3.4600 c3         2 UNL       0.131114
      7 O           -6.5900     0.6610     1.2920 os         2 UNL      -0.424600
      8 O2          -5.9640    -2.1650     1.4550 oh         2 UNL      -0.620657
      9 O3          -4.1280    -2.9680    -0.7210 os         2 UNL      -0.435600
     10 O4          -5.9720    -0.1580    -2.2190 os         2 UNL      -0.431457
     11 O5          -4.2340    -2.7680    -3.9070 oh         2 UNL      -0.618800
     12 H           -7.0070     1.2900    -1.3580 h2         2 UNL       0.099700
     13 H1          -7.5400    -0.7010     0.0220 h1         2 UNL       0.073557
     14 H2          -4.5000    -0.8940     0.7270 h1         2 UNL       0.078557
     15 H3          -6.2010    -2.8220    -1.0540 h1         2 UNL       0.071129
     16 H4          -4.0230    -0.8680    -2.1280 h1         2 UNL       0.083986
     17 H5          -6.2260    -2.7020    -3.3520 h1         2 UNL       0.065986
     18 H6          -5.5340    -1.3540    -4.3010 h1         2 UNL       0.065986
     19 C7          -7.6050     0.3400     2.2390 c3         2 UNL       0.089971
     20 H7          -5.3650    -2.9090     1.5330 ho         2 UNL       0.434143
     21 H8          -4.0300    -3.4440    -3.2570 ho         2 UNL       0.433714
     22 C8          -3.3820     5.1220    -1.1430 c3         2 UNL       0.323614
     23 C9          -4.2960     4.8450     0.0850 c3         2 UNL       0.126100
     24 C10         -4.4940     3.3220     0.2710 c3         2 UNL       0.119671
     25 C11         -5.0150     2.7140    -1.0630 c3         2 UNL       0.092243
     26 C12         -4.1260     3.1020    -2.2720 c3         2 UNL       0.095814
     27 C13         -4.8510     2.8390    -3.6230 c3         2 UNL       0.131114
     28 O6          -3.6610     5.4310     1.2170 os         2 UNL      -0.424600
     29 O7          -5.4490     3.1550     1.2980 oh         2 UNL      -0.620657
     30 O8          -4.9450     1.2930    -0.9110 os         2 UNL      -0.435600
     31 O9          -3.8270     4.5060    -2.3220 os         2 UNL      -0.431457
     32 O10         -4.6980     1.5320    -4.0800 oh         2 UNL      -0.618800
     33 H9          -3.3750     6.2060    -1.4180 h2         2 UNL       0.099700
     34 H10         -5.2860     5.3420    -0.0910 h1         2 UNL       0.073557
     35 H11         -3.5330     2.8390     0.5770 h1         2 UNL       0.078557
     36 H12         -6.0760     3.0380    -1.2410 h1         2 UNL       0.071129
     37 H13         -3.1590     2.5410    -2.2310 h1         2 UNL       0.083986
     38 H14         -5.9230     3.1130    -3.5490 h1         2 UNL       0.065986
     39 H15         -4.4080     3.4370    -4.4420 h1         2 UNL       0.065986
     40 C14         -4.5740     6.0070     2.1490 c3         2 UNL       0.089971
     41 H16         -5.6240     2.2160     1.3750 ho         2 UNL       0.434143
     42 H17         -5.1260     0.9390    -3.4580 ho         2 UNL       0.433714
     43 C15          1.8830     5.7800    -1.0840 c3         2 UNL       0.323614
     44 C16          1.0590     6.3190     0.1210 c3         2 UNL       0.126100
     45 C17         -0.2570     5.5190     0.2680 c3         2 UNL       0.119671
     46 C18         -1.0190     5.5480    -1.0890 c3         2 UNL       0.092243
     47 C19         -0.1260     5.1040    -2.2760 c3         2 UNL       0.095814
     48 C20         -0.7440     5.5180    -3.6420 c3         2 UNL       0.131114
     49 O11          1.8780     6.1900     1.2790 os         2 UNL      -0.424600
     50 O12         -1.0140     6.1570     1.2740 oh         2 UNL      -0.620657
     51 O13         -2.0830     4.5980    -0.9710 os         2 UNL      -0.435600
     52 O14          1.1590     5.7470    -2.2840 os         2 UNL      -0.431457
     53 O15         -1.6640     4.5910    -4.1280 oh         2 UNL      -0.618800
     54 H18          2.7420     6.4520    -1.3310 h2         2 UNL       0.099700
     55 H19          0.8320     7.4020    -0.0600 h1         2 UNL       0.073557
     56 H20         -0.0400     4.4660     0.5770 h1         2 UNL       0.078557
     57 H21         -1.4300     6.5760    -1.2740 h1         2 UNL       0.071129
     58 H22          0.0380     3.9980    -2.2390 h1         2 UNL       0.083986
     59 H23         -1.1940     6.5290    -3.5760 h1         2 UNL       0.065986
     60 H24          0.0220     5.5420    -4.4400 h1         2 UNL       0.065986
     61 C21          1.7360     7.2690     2.1990 c3         2 UNL       0.089971
     62 H25         -1.8510     5.6940     1.3360 ho         2 UNL       0.434143
     63 H26         -2.4090     4.5550    -3.5240 ho         2 UNL       0.433714
     64 C22          5.6770     2.0710    -0.9070 c3         2 UNL       0.323614
     65 C23          5.5340     3.0400     0.3020 c3         2 UNL       0.126100
     66 C24          4.0910     3.5830     0.3970 c3         2 UNL       0.119671
     67 C25          3.6850     4.1960    -0.9740 c3         2 UNL       0.092243
     68 C26          3.9320     3.2190    -2.1520 c3         2 UNL       0.095814
     69 C27          3.9090     3.9570    -3.5210 c3         2 UNL       0.131114
     70 O16          5.8690     2.3000     1.4770 os         2 UNL      -0.424600
     71 O17          4.0960     4.5760     1.4000 oh         2 UNL      -0.620657
     72 O18          2.2760     4.4380    -0.9030 os         2 UNL      -0.435600
     73 O19          5.2370     2.6190    -2.1200 os         2 UNL      -0.431457
     74 O20          2.6250     4.1000    -4.0430 oh         2 UNL      -0.618800
     75 H27          6.7510     1.8320    -1.1140 h2         2 UNL       0.099700
     76 H28          6.2640     3.8830     0.1540 h1         2 UNL       0.073557
     77 H29          3.3870     2.7640     0.6860 h1         2 UNL       0.078557
     78 H30          4.2410     5.1570    -1.1430 h1         2 UNL       0.071129
     79 H31          3.1710     2.3990    -2.1350 h1         2 UNL       0.083986
     80 H32          4.4190     4.9390    -3.4430 h1         2 UNL       0.065986
     81 H33          4.4260     3.3710    -4.3040 h1         2 UNL       0.065986
     82 C28          6.7130     2.9750     2.3910 c3         2 UNL       0.089971
     83 H34          3.2120     4.9450     1.4400 ho         2 UNL       0.434143
     84 H35          2.1170     4.6650    -3.4560 ho         2 UNL       0.433714
     85 C29          5.1730    -3.2140    -0.7940 c3         2 UNL       0.323614
     86 C30          5.8540    -2.5150     0.4160 c3         2 UNL       0.126100
     87 C31          5.4120    -1.0390     0.5260 c3         2 UNL       0.119671
     88 C32          5.6020    -0.3280    -0.8460 c3         2 UNL       0.092243
     89 C33          4.9960    -1.1270    -2.0280 c3         2 UNL       0.095814
     90 C34          5.5670    -0.6440    -3.3920 c3         2 UNL       0.131114
     91 O21          5.4670    -3.2400     1.5850 os         2 UNL      -0.424600
     92 O22          6.2400    -0.4440     1.5030 oh         2 UNL      -0.620657
     93 O23          4.8880     0.9110    -0.7600 os         2 UNL      -0.435600
     94 O24          5.3360    -2.5210    -2.0020 os         2 UNL      -0.431457
     95 O25          4.8970     0.4630    -3.9070 oh         2 UNL      -0.618800
     96 H36          5.6440    -4.2060    -1.0130 h2         2 UNL       0.099700
     97 H37          6.9670    -2.5820     0.2700 h1         2 UNL       0.073557
     98 H38          4.3430    -0.9790     0.8520 h1         2 UNL       0.078557
     99 H39          6.6950    -0.1360    -1.0240 h1         2 UNL       0.071129
    100 H40          3.8810    -1.0390    -2.0160 h1         2 UNL       0.083986
    101 H41          6.6550    -0.4470    -3.3110 h1         2 UNL       0.065986
    102 H42          5.4210    -1.4050    -4.1820 h1         2 UNL       0.065986
    103 C35          6.4960    -3.4590     2.5310 c3         2 UNL       0.089971
    104 H43          5.9970     0.4810     1.5530 ho         2 UNL       0.434143
    105 H44          5.0190     1.2010    -3.3060 ho         2 UNL       0.433714
    106 C36          0.6940    -6.0680    -0.7160 c3         2 UNL       0.323614
    107 C37          1.6330    -6.1490     0.5210 c3         2 UNL       0.126100
    108 C38          2.5180    -4.8870     0.6320 c3         2 UNL       0.119671
    109 C39          3.2310    -4.6250    -0.7270 c3         2 UNL       0.092243
    110 C40          2.2530    -4.6520    -1.9290 c3         2 UNL       0.095814
    111 C41          3.0130    -4.8150    -3.2770 c3         2 UNL       0.131114
    112 O26          0.7950    -6.2730     1.6720 os         2 UNL      -0.424600
    113 O27          3.4650    -5.1500     1.6460 oh         2 UNL      -0.620657
    114 O28          3.7730    -3.3010    -0.6470 os         2 UNL      -0.435600
    115 O29          1.3680    -5.7810    -1.9120 os         2 UNL      -0.431457
    116 O30          3.4600    -3.6040    -3.8030 oh         2 UNL      -0.618800
    117 H45          0.2160    -7.0570    -0.9320 h2         2 UNL       0.099700
    118 H46          2.2730    -7.0670     0.4070 h1         2 UNL       0.073557
    119 H47          1.8960    -4.0030     0.9240 h1         2 UNL       0.078557
    120 H48          4.0520    -5.3760    -0.8770 h1         2 UNL       0.071129
    121 H49          1.6320    -3.7210    -1.9390 h1         2 UNL       0.083986
    122 H50          3.8500    -5.5340    -3.1680 h1         2 UNL       0.065986
    123 H51          2.3460    -5.1940    -4.0740 h1         2 UNL       0.065986
    124 C42          1.2300    -7.2060     2.6410 c3         2 UNL       0.089971
    125 H52          4.0700    -4.4070     1.6650 ho         2 UNL       0.434143
    126 H53          4.1050    -3.2300    -3.1990 ho         2 UNL       0.433714
    127 C43         -4.3360    -4.3620    -0.8020 c3         2 UNL       0.323614
    128 C44         -3.8400    -5.1090     0.4680 c3         2 UNL       0.126100
    129 C45         -2.3050    -5.0040     0.6160 c3         2 UNL       0.119671
    130 C46         -1.6200    -5.4290    -0.7150 c3         2 UNL       0.092243
    131 C47         -2.2200    -4.7090    -1.9500 c3         2 UNL       0.095814
    132 C48         -1.8320    -5.4300    -3.2730 c3         2 UNL       0.131114
    133 O31         -4.4910    -4.5060     1.5880 os         2 UNL      -0.424600
    134 O32         -1.9440    -5.8800     1.6630 oh         2 UNL      -0.620657
    135 O33         -0.2490    -5.0250    -0.6080 os         2 UNL      -0.435600
    136 O34         -3.6560    -4.7300    -1.9720 os         2 UNL      -0.431457
    137 O35         -0.6000    -5.0200    -3.7770 oh         2 UNL      -0.618800
    138 H54         -5.3980    -4.6210    -1.0420 h2         2 UNL       0.099700
    139 H55         -4.1510    -6.1870     0.3730 h1         2 UNL       0.073557
    140 H56         -2.0150    -3.9580     0.8890 h1         2 UNL       0.078557
    141 H57         -1.6910    -6.5430    -0.8420 h1         2 UNL       0.071129
    142 H58         -1.8860    -3.6420    -1.9710 h1         2 UNL       0.083986
    143 H59         -1.8620    -6.5310    -3.1410 h1         2 UNL       0.065986
    144 H60         -2.5280    -5.1720    -4.0930 h1         2 UNL       0.065986
    145 C49         -4.9790    -5.4070     2.5620 c3         2 UNL       0.089971
    146 H61         -0.9870    -5.8920     1.7020 ho         2 UNL       0.434143
    147 H62          0.0830    -5.2730    -3.1520 ho         2 UNL       0.433714
    148 C50         -7.9990     1.6420     2.9730 c3         2 UNL       0.120671
    149 H63         -7.1890    -0.3980     2.9500 h1         2 UNL       0.062771
    150 H64         -8.4780    -0.1240     1.7360 h1         2 UNL       0.062771
    151 H65         -7.0830     2.1600     3.3540 h1         2 UNL       0.059557
    152 C51         -8.9180     1.3030     4.1420 c3         2 UNL      -0.112100
    153 O36         -8.7150     2.5160     2.1220 oh         2 UNL      -0.604657
    154 H66         -8.4070     0.6540     4.8640 hc         2 UNL       0.047129
    155 H67         -9.8280     0.7840     3.8110 hc         2 UNL       0.047129
    156 H68         -9.2360     2.2090     4.6750 hc         2 UNL       0.047129
    157 H69         -8.0850     2.8590     1.5020 ho         2 UNL       0.415286
    158 C52         -3.8440     7.1480     2.8920 c3         2 UNL       0.120671
    159 H70         -4.8820     5.2140     2.8550 h1         2 UNL       0.062771
    160 H71         -5.4820     6.3740     1.6290 h1         2 UNL       0.062771
    161 H72         -2.8660     6.7800     3.2940 h1         2 UNL       0.059557
    162 C53         -4.7170     7.6400     4.0420 c3         2 UNL      -0.112100
    163 O37         -3.6170     8.2540     2.0400 oh         2 UNL      -0.604657
    164 H73         -4.9030     6.8330     4.7620 hc         2 UNL       0.047129
    165 H74         -5.6920     8.0030     3.6890 hc         2 UNL       0.047129
    166 H75         -4.2370     8.4650     4.5820 hc         2 UNL       0.047129
    167 H76         -2.9280     7.9930     1.4430 ho         2 UNL       0.415286
    168 C54          3.0710     7.4320     2.9610 c3         2 UNL       0.120671
    169 H77          0.9160     7.0120     2.8960 h1         2 UNL       0.062771
    170 H78          1.4530     8.2010     1.6670 h1         2 UNL       0.062771
    171 H79          3.3960     6.4470     3.3790 h1         2 UNL       0.059557
    172 C55          2.8840     8.4340     4.0950 c3         2 UNL      -0.112100
    173 O38          4.0820     7.9430     2.1140 oh         2 UNL      -0.604657
    174 H80          2.1290     8.0790     4.8070 hc         2 UNL       0.047129
    175 H81          2.5590     9.4160     3.7240 hc         2 UNL       0.047129
    176 H82          3.8200     8.5880     4.6480 hc         2 UNL       0.047129
    177 H83          4.3500     7.2250     1.5560 ho         2 UNL       0.415286
    178 H84          6.7710     2.2380     3.2110 h1         2 UNL       0.062771
    179 H85          6.2120     3.8860     2.7740 h1         2 UNL       0.062771
    180 C56          8.1040     3.3140     1.8010 c3         2 UNL       0.120671
    181 C57          8.9300     2.0560     1.5570 c3         2 UNL      -0.112100
    182 O39          8.7750     4.2490     2.6100 oh         2 UNL      -0.604657
    183 H86          7.9630     3.8890     0.8490 h1         2 UNL       0.059557
    184 H87          9.0990     1.4900     2.4840 hc         2 UNL       0.047129
    185 H88          9.9130     2.2960     1.1330 hc         2 UNL       0.047129
    186 H89          8.4150     1.3870     0.8530 hc         2 UNL       0.047129
    187 H90          8.9740     3.8190     3.4330 ho         2 UNL       0.415286
    188 H91          5.9410    -3.9940     3.3230 h1         2 UNL       0.062771
    189 H92          6.8510    -2.4950     2.9420 h1         2 UNL       0.062771
    190 C58          7.6890    -4.2770     1.9890 c3         2 UNL       0.120671
    191 O40          7.3060    -5.5370     1.4900 oh         2 UNL      -0.604657
    192 C59          8.7650    -4.3890     3.0640 c3         2 UNL      -0.112100
    193 H93          8.0880    -3.7820     1.0660 h1         2 UNL       0.059557
    194 H94          8.3820    -4.8700     3.9750 hc         2 UNL       0.047129
    195 H95          9.1420    -3.3980     3.3460 hc         2 UNL       0.047129
    196 H96          9.6200    -4.9820     2.7140 hc         2 UNL       0.047129
    197 H97          6.9030    -6.0160     2.2040 ho         2 UNL       0.415286
    198 H98          0.4490    -7.0860     3.4130 h1         2 UNL       0.062771
    199 H99          2.1990    -6.8880     3.0710 h1         2 UNL       0.062771
    200 C60          1.3310    -8.6570     2.1210 c3         2 UNL       0.120671
    201 O41          0.1150    -9.1360     1.5990 oh         2 UNL      -0.604657
    202 C61          1.8780    -9.5600     3.2220 c3         2 UNL      -0.112100
    203 H100         1.9890    -8.6800     1.2140 h1         2 UNL       0.059557
    204 H101         1.2420    -9.5410     4.1170 hc         2 UNL       0.047129
    205 H102         2.8850    -9.2440     3.5230 hc         2 UNL       0.047129
    206 H103         1.9440   -10.6030     2.8870 hc         2 UNL       0.047129
    207 H104        -0.5280    -9.1000     2.2970 ho         2 UNL       0.415286
    208 H105        -5.3940    -4.7040     3.3080 h1         2 UNL       0.062771
    209 H106        -4.1400    -5.9570     3.0290 h1         2 UNL       0.062771
    210 C62         -6.0360    -6.4000     2.0320 c3         2 UNL       0.120671
    211 O42         -7.1460    -5.7580     1.4510 oh         2 UNL      -0.604657
    212 C63         -6.4450    -7.3580     3.1450 c3         2 UNL      -0.112100
    213 H107        -5.6140    -6.9550     1.1540 h1         2 UNL       0.059557
    214 H108        -6.8580    -6.8230     4.0120 hc         2 UNL       0.047129
    215 H109        -5.5840    -7.9420     3.4950 hc         2 UNL       0.047129
    216 H110        -7.2090    -8.0670     2.8020 hc         2 UNL       0.047129
    217 H111        -7.5420    -5.2120     2.1200 ho         2 UNL       0.415286
@<TRIPOS>BOND
     1     1     2 1   
     2     1    10 1   
     3     1    12 1   
     4     1    30 1   
     5     2     3 1   
     6     2     7 1   
     7     2    13 1   
     8     3     4 1   
     9     3     8 1   
    10     3    14 1   
    11     4     5 1   
    12     4     9 1   
    13     4    15 1   
    14     5     6 1   
    15     5    10 1   
    16     5    16 1   
    17     6    11 1   
    18     6    17 1   
    19     6    18 1   
    20     7    19 1   
    21     8    20 1   
    22     9   127 1   
    23    11    21 1   
    24    19   148 1   
    25    19   149 1   
    26    19   150 1   
    27    22    23 1   
    28    22    31 1   
    29    22    33 1   
    30    22    51 1   
    31    23    24 1   
    32    23    28 1   
    33    23    34 1   
    34    24    25 1   
    35    24    29 1   
    36    24    35 1   
    37    25    26 1   
    38    25    30 1   
    39    25    36 1   
    40    26    27 1   
    41    26    31 1   
    42    26    37 1   
    43    27    32 1   
    44    27    38 1   
    45    27    39 1   
    46    28    40 1   
    47    29    41 1   
    48    32    42 1   
    49    40   158 1   
    50    40   159 1   
    51    40   160 1   
    52    43    44 1   
    53    43    52 1   
    54    43    54 1   
    55    43    72 1   
    56    44    45 1   
    57    44    49 1   
    58    44    55 1   
    59    45    46 1   
    60    45    50 1   
    61    45    56 1   
    62    46    47 1   
    63    46    51 1   
    64    46    57 1   
    65    47    48 1   
    66    47    52 1   
    67    47    58 1   
    68    48    53 1   
    69    48    59 1   
    70    48    60 1   
    71    49    61 1   
    72    50    62 1   
    73    53    63 1   
    74    61   168 1   
    75    61   169 1   
    76    61   170 1   
    77    64    65 1   
    78    64    73 1   
    79    64    75 1   
    80    64    93 1   
    81    65    66 1   
    82    65    70 1   
    83    65    76 1   
    84    66    67 1   
    85    66    71 1   
    86    66    77 1   
    87    67    68 1   
    88    67    72 1   
    89    67    78 1   
    90    68    69 1   
    91    68    73 1   
    92    68    79 1   
    93    69    74 1   
    94    69    80 1   
    95    69    81 1   
    96    70    82 1   
    97    71    83 1   
    98    74    84 1   
    99    82   178 1   
   100    82   179 1   
   101    82   180 1   
   102    85    86 1   
   103    85    94 1   
   104    85    96 1   
   105    85   114 1   
   106    86    87 1   
   107    86    91 1   
   108    86    97 1   
   109    87    88 1   
   110    87    92 1   
   111    87    98 1   
   112    88    89 1   
   113    88    93 1   
   114    88    99 1   
   115    89    90 1   
   116    89    94 1   
   117    89   100 1   
   118    90    95 1   
   119    90   101 1   
   120    90   102 1   
   121    91   103 1   
   122    92   104 1   
   123    95   105 1   
   124   103   188 1   
   125   103   189 1   
   126   103   190 1   
   127   106   107 1   
   128   106   115 1   
   129   106   117 1   
   130   106   135 1   
   131   107   108 1   
   132   107   112 1   
   133   107   118 1   
   134   108   109 1   
   135   108   113 1   
   136   108   119 1   
   137   109   110 1   
   138   109   114 1   
   139   109   120 1   
   140   110   111 1   
   141   110   115 1   
   142   110   121 1   
   143   111   116 1   
   144   111   122 1   
   145   111   123 1   
   146   112   124 1   
   147   113   125 1   
   148   116   126 1   
   149   124   198 1   
   150   124   199 1   
   151   124   200 1   
   152   127   128 1   
   153   127   136 1   
   154   127   138 1   
   155   128   129 1   
   156   128   133 1   
   157   128   139 1   
   158   129   130 1   
   159   129   134 1   
   160   129   140 1   
   161   130   131 1   
   162   130   135 1   
   163   130   141 1   
   164   131   132 1   
   165   131   136 1   
   166   131   142 1   
   167   132   137 1   
   168   132   143 1   
   169   132   144 1   
   170   133   145 1   
   171   134   146 1   
   172   137   147 1   
   173   145   208 1   
   174   145   209 1   
   175   145   210 1   
   176   148   151 1   
   177   148   152 1   
   178   148   153 1   
   179   152   154 1   
   180   152   155 1   
   181   152   156 1   
   182   153   157 1   
   183   158   161 1   
   184   158   162 1   
   185   158   163 1   
   186   162   164 1   
   187   162   165 1   
   188   162   166 1   
   189   163   167 1   
   190   168   171 1   
   191   168   172 1   
   192   168   173 1   
   193   172   174 1   
   194   172   175 1   
   195   172   176 1   
   196   173   177 1   
   197   180   181 1   
   198   180   182 1   
   199   180   183 1   
   200   181   184 1   
   201   181   185 1   
   202   181   186 1   
   203   182   187 1   
   204   190   191 1   
   205   190   192 1   
   206   190   193 1   
   207   191   197 1   
   208   192   194 1   
   209   192   195 1   
   210   192   196 1   
   211   200   201 1   
   212   200   202 1   
   213   200   203 1   
   214   201   207 1   
   215   202   204 1   
   216   202   205 1   
   217   202   206 1   
   218   210   211 1   
   219   210   212 1   
   220   210   213 1   
   221   211   217 1   
   222   212   214 1   
   223   212   215 1   
   224   212   216 1   
@<TRIPOS>SUBSTRUCTURE
     1 UNL         1 TEMP              0 ****  ****    0 ROOT
